
 OpenBabel07311713323D

 24 24  0  0  0  0  0  0  0  0999 V2000
   -0.6890    1.3961   -0.0000 C   0  0  0  0  0  0  0  0  0  0  0  0
    0.6890    1.3961    0.0003 C   0  0  0  0  0  0  0  0  0  0  0  0
    0.6890   -1.0218    0.0009 C   0  0  0  0  0  0  0  0  0  0  0  0
   -0.6890   -1.0218    0.0000 C   0  0  0  0  0  0  0  0  0  0  0  0
   -4.9899   -0.9033   -0.0003 C   0  0  0  0  0  0  0  0  0  0  0  0
    4.9899   -0.9033   -0.0004 C   0  0  0  0  0  0  0  0  0  0  0  0
   -1.3870    0.1872   -0.0002 C   0  0  0  0  0  0  0  0  0  0  0  0
    1.3870    0.1872    0.0006 C   0  0  0  0  0  0  0  0  0  0  0  0
   -3.4736    1.2389    0.0000 O   0  0  0  0  0  0  0  0  0  0  0  0
    3.4736    1.2389   -0.0007 O   0  0  0  0  0  0  0  0  0  0  0  0
    2.8664    0.1872   -0.0000 C   0  0  0  0  0  0  0  0  0  0  0  0
   -2.8664    0.1872   -0.0002 C   0  0  0  0  0  0  0  0  0  0  0  0
   -3.5399   -0.9793   -0.0003 O   0  0  0  0  0  0  0  0  0  0  0  0
    3.5399   -0.9793    0.0002 O   0  0  0  0  0  0  0  0  0  0  0  0
   -1.2290    2.3314    0.0043 H   0  0  0  0  0  0  0  0  0  0  0  0
    1.2290    2.3314    0.0001 H   0  0  0  0  0  0  0  0  0  0  0  0
    1.2290   -1.9571    0.0011 H   0  0  0  0  0  0  0  0  0  0  0  0
   -1.2290   -1.9571   -0.0001 H   0  0  0  0  0  0  0  0  0  0  0  0
   -5.3258   -0.3713    0.8898 H   0  0  0  0  0  0  0  0  0  0  0  0
   -5.3259   -0.3710   -0.8901 H   0  0  0  0  0  0  0  0  0  0  0  0
   -5.4065   -1.9105   -0.0004 H   0  0  0  0  0  0  0  0  0  0  0  0
    5.3255   -0.3715   -0.8907 H   0  0  0  0  0  0  0  0  0  0  0  0
    5.3262   -0.3708    0.8892 H   0  0  0  0  0  0  0  0  0  0  0  0
    5.4065   -1.9105   -0.0001 H   0  0  0  0  0  0  0  0  0  0  0  0
  1  7  2  0  0  0  0
  1  2  1  0  0  0  0
  1 15  1  0  0  0  0
  2  8  2  0  0  0  0
  2 16  1  0  0  0  0
  3  8  1  0  0  0  0
  3  4  2  0  0  0  0
  3 17  1  0  0  0  0
  4  7  1  0  0  0  0
  4 18  1  0  0  0  0
  5 13  1  0  0  0  0
  5 19  1  0  0  0  0
  5 20  1  0  0  0  0
  5 21  1  0  0  0  0
  6 14  1  0  0  0  0
  6 22  1  0  0  0  0
  6 23  1  0  0  0  0
  6 24  1  0  0  0  0
  7 12  1  0  0  0  0
  8 11  1  0  0  0  0
  9 12  2  0  0  0  0
 10 11  2  0  0  0  0
 11 14  1  0  0  0  0
 12 13  1  0  0  0  0
M  END
